tests/data/state_estimation/not-independent-sensor/not-independent-sensor-with-phasor-sensors/input.json
{
  "version": "1.0",
  "type": "input",
  "is_batch": false,
  "attributes": {},
  "data": {
    "node": [
      {
        "id": 0,
        "u_rated": 10
      },
      {
        "id": 1,
        "u_rated": 10
      },
      {
        "id": 2,
        "u_rated": 10
      },
      {
        "id": 3,
        "u_rated": 10
      }
    ],
    "line": [
      {
        "id": 4,
        "from_node": 0,
        "to_node": 1,
        "from_status": 1,
        "to_status": 1,
        "r1": 1.0,
        "x1": 0.0,
        "c1": 0.0,
        "tan1": 0.0,
        "i_n": 500
      },
      {
        "id": 5,
        "from_node": 1,
        "to_node": 2,
        "from_status": 1,
        "to_status": 1,
        "r1": 1.0,
        "x1": 0.0,
        "c1": 0.0,
        "tan1": 0.0,
        "i_n": 500
      },
      {
        "id": 6,
        "from_node": 2,
        "to_node": 3,
        "from_status": 1,
        "to_status": 1,
        "r1": 1.0,
        "x1": 0.0,
        "c1": 0.0,
        "tan1": 0.0,
        "i_n": 500
      }
    ],
    "source": [
      {
        "id": 7,
        "node": 0,
        "status": 1,
        "u_ref": 1.0
      }
    ],
    "sym_load": [
      {
        "id": 8,
        "node": 2,
        "status": 1,
        "type": 0,
        "p_specified": 9,
        "q_specified": 0
      },
      {
        "id": 9,
        "node": 3,
        "status": 1,
        "type": 0,
        "p_specified": 9,
        "q_specified": 0
      }
    ],
    "sym_power_sensor": [
      {
        "id": 10,
        "measured_object": 7,
        "measured_terminal_type": 2,
        "power_sigma": 1,
        "p_measured": 0,
        "q_measured": 0
      },
      {
        "id": 11,
        "measured_object": 4,
        "measured_terminal_type": 0,
        "power_sigma": 1,
        "p_measured": 0,
        "q_measured": 0
      },
      {
        "id": 12,
        "measured_object": 5,
        "measured_terminal_type": 1,
        "power_sigma": 1,
        "p_measured": 0,
        "q_measured": 0
      }
    ],
    "sym_voltage_sensor": [
      {
        "id": 13,
        "measured_object": 0,
        "u_sigma": 1,
        "u_measured": 10,
        "u_angle_measured": 0
      },
      {
        "id": 14,
        "measured_object": 1,
        "u_sigma": 1,
        "u_measured": 10,
        "u_angle_measured": 0
      }
    ]
  }
}
